../../../../../../nemo/NEMOGCM/NEMO/OPA_SRC/