../../../../../../nemo/NEMOGCM/NEMO/TOP_SRC/